
#======================================================================
# CRYSTAL DATA
#----------------------------------------------------------------------
data_VESTA_phase_1

_chemical_name_common                  'CIF file                              '
_cell_length_a                         6.048930
_cell_length_b                         6.686234
_cell_length_c                         5.906868
_cell_angle_alpha                      93.036118
_cell_angle_beta                       90.936302
_cell_angle_gamma                      92.314896
_cell_volume                           238.329782
_space_group_name_H-M_alt              'P 1'
_space_group_IT_number                 1

loop_
_space_group_symop_operation_xyz
   'x, y, z'

loop_
   _atom_site_label
   _atom_site_occupancy
   _atom_site_fract_x
   _atom_site_fract_y
   _atom_site_fract_z
   _atom_site_adp_type
   _atom_site_B_iso_or_equiv
   _atom_site_type_symbol
   C1          1.0     0.679821     0.843948     0.148369    Biso  1.000000 C
   C2          1.0     0.796425     0.135448     0.660572    Biso  1.000000 C
   C3          1.0     0.253873     0.804888     0.611343    Biso  1.000000 C
   N1          1.0     0.155971     0.750883     0.827862    Biso  1.000000 N
   N2          1.0     0.752485     0.646868     0.211534    Biso  1.000000 N
   N3          1.0     0.598233     0.258806     0.674471    Biso  1.000000 N
   H1          1.0     0.433624     0.835677     0.624121    Biso  1.000000 H
   H2          1.0     0.173508     0.936520     0.549741    Biso  1.000000 H
   H3          1.0     0.223589     0.679991     0.484352    Biso  1.000000 H
   H4          1.0     0.172332     0.870651     0.943629    Biso  1.000000 H
   H5          1.0     0.237985     0.635808     0.894611    Biso  1.000000 H
   H6          1.0     0.899622     0.667641     0.737211    Biso  1.000000 H
   H7          1.0     0.495396     0.234255     0.532399    Biso  1.000000 H
   H8          1.0     0.656376     0.417749     0.680465    Biso  1.000000 H
   H9          1.0     0.504761     0.232760     0.816730    Biso  1.000000 H
   H10         1.0     0.890628     0.177388     0.511971    Biso  1.000000 H
   H11         1.0     0.749437     0.975421     0.646947    Biso  1.000000 H
   H12         1.0     0.899075     0.169285     0.813619    Biso  1.000000 H
   H13         1.0     0.891507     0.608015     0.126208    Biso  1.000000 H
   H14         1.0     0.631958     0.538791     0.167292    Biso  1.000000 H
   H15         1.0     0.770177     0.636958     0.487138    Biso  1.000000 H
   H16         1.0     0.626325     0.845343     0.969705    Biso  1.000000 H
   H17         1.0     0.816288     0.956200     0.178716    Biso  1.000000 H
   H18         1.0     0.541382     0.888572     0.255142    Biso  1.000000 H
   O1          1.0     0.752110     0.625858     0.659660    Biso  1.000000 O
   I1          1.0     0.248268     0.273309     0.165140    Biso  1.000000 I
