
#======================================================================
# CRYSTAL DATA
#----------------------------------------------------------------------
data_VESTA_phase_1

_chemical_name_common                  'CIF file                              '
_cell_length_a                         6.048930
_cell_length_b                         6.686234
_cell_length_c                         5.906868
_cell_angle_alpha                      93.036118
_cell_angle_beta                       90.936310
_cell_angle_gamma                      92.314896
_cell_volume                           238.329782
_space_group_name_H-M_alt              'P 1'
_space_group_IT_number                 1

loop_
_space_group_symop_operation_xyz
   'x, y, z'

loop_
   _atom_site_label
   _atom_site_occupancy
   _atom_site_fract_x
   _atom_site_fract_y
   _atom_site_fract_z
   _atom_site_adp_type
   _atom_site_B_iso_or_equiv
   _atom_site_type_symbol
   C1          1.0     0.770179     0.656052     0.301631    Biso  1.000000 C
   C2          1.0     0.653575     0.364552     0.789428    Biso  1.000000 C
   C3          1.0     0.196127     0.695112     0.838657    Biso  1.000000 C
   N1          1.0     0.294029     0.749117     0.622138    Biso  1.000000 N
   N2          1.0     0.697515     0.853132     0.238466    Biso  1.000000 N
   N3          1.0     0.851767     0.241194     0.775529    Biso  1.000000 N
   H1          1.0     0.016376     0.664323     0.825879    Biso  1.000000 H
   H2          1.0     0.276492     0.563480     0.900259    Biso  1.000000 H
   H3          1.0     0.226411     0.820009     0.965648    Biso  1.000000 H
   H4          1.0     0.277668     0.629349     0.506371    Biso  1.000000 H
   H5          1.0     0.212015     0.864192     0.555389    Biso  1.000000 H
   H6          1.0     0.550378     0.832359     0.712789    Biso  1.000000 H
   H7          1.0     0.954604     0.265745     0.917601    Biso  1.000000 H
   H8          1.0     0.793624     0.082251     0.769535    Biso  1.000000 H
   H9          1.0     0.945239     0.267240     0.633270    Biso  1.000000 H
   H10         1.0     0.559372     0.322612     0.938029    Biso  1.000000 H
   H11         1.0     0.700563     0.524579     0.803053    Biso  1.000000 H
   H12         1.0     0.550925     0.330715     0.636381    Biso  1.000000 H
   H13         1.0     0.558493     0.891985     0.323792    Biso  1.000000 H
   H14         1.0     0.818042     0.961209     0.282708    Biso  1.000000 H
   H15         1.0     0.679823     0.863042     0.962862    Biso  1.000000 H
   H16         1.0     0.823675     0.654657     0.480295    Biso  1.000000 H
   H17         1.0     0.633712     0.543800     0.271284    Biso  1.000000 H
   H18         1.0     0.908618     0.611428     0.194858    Biso  1.000000 H
   O1          1.0     0.697890     0.874142     0.790340    Biso  1.000000 O
   I1          1.0     0.201732     0.226691     0.284860    Biso  1.000000 I
