
#======================================================================
# CRYSTAL DATA
#----------------------------------------------------------------------
data_VESTA_phase_1

_chemical_name_common                  'Repassivated H'
_cell_length_a                         6.055700
_cell_length_b                         6.688300
_cell_length_c                         5.897600
_cell_angle_alpha                      92.699997
_cell_angle_beta                       90.900002
_cell_angle_gamma                      92.500000
_cell_volume                           238.336567
_space_group_name_H-M_alt              'P 1'
_space_group_IT_number                 1

loop_
_space_group_symop_operation_xyz
   'x, y, z'

loop_
   _atom_site_label
   _atom_site_occupancy
   _atom_site_fract_x
   _atom_site_fract_y
   _atom_site_fract_z
   _atom_site_adp_type
   _atom_site_B_iso_or_equiv
   _atom_site_type_symbol
   C1          1.0     0.671868     0.677271     0.141153    Biso  1.000000 C
   C2          1.0     0.620432     0.159462     0.728124    Biso  1.000000 C
   C3          1.0     0.125717     0.735223     0.694424    Biso  1.000000 C
   N1          1.0     0.343632     0.770527     0.808091    Biso  1.000000 N
   N2          1.0     0.786751     0.760533     0.348550    Biso  1.000000 N
   N3          1.0     0.752433     0.351302     0.728026    Biso  1.000000 N
   O1          1.0     0.725001     0.750000     0.725001    Biso  1.000000 O
   I1          1.0     0.224999     0.250001     0.225001    Biso  1.000000 I
   H1          1.0     0.589308     0.793779     0.060493    Biso  1.000000 H
   H2          1.0     0.553218     0.562703     0.184482    Biso  1.000000 H
   H3          1.0     0.789544     0.614791     0.027682    Biso  1.000000 H
   H4          1.0     0.683691     0.068728     0.856741    Biso  1.000000 H
   H5          1.0     0.630759     0.082153     0.565882    Biso  1.000000 H
   H6          1.0     0.451532     0.188979     0.761822    Biso  1.000000 H
   H7          1.0     0.098913     0.851804     0.580238    Biso  1.000000 H
   H8          1.0    -0.000780     0.734539     0.819070    Biso  1.000000 H
   H9          1.0     0.120975     0.593726     0.601529    Biso  1.000000 H
   H10         1.0     0.348152     0.905414     0.896644    Biso  1.000000 H
   H11         1.0     0.464216     0.771181     0.689269    Biso  1.000000 H
   H12         1.0     0.674573     0.820094     0.456717    Biso  1.000000 H
   H13         1.0     0.899857     0.869747     0.307245    Biso  1.000000 H
   H14         1.0     0.913439     0.323161     0.695904    Biso  1.000000 H
   H15         1.0     0.742589     0.424996     0.882687    Biso  1.000000 H
   H16         1.0     0.676975     0.431922     0.604823    Biso  1.000000 H
   H17         1.0     0.378500     0.661997     0.926012    Biso  1.000000 H
   H18         1.0     0.883042     0.646458     0.412340    Biso  1.000000 H
