# This file was generated by ISODISTORT, version 6.7.2
# Harold T. Stokes, Branton J. Campbell, David Tanner, Dorian M. Hatch
# Brigham Young University, Provo, Utah, USA
#
# Space Group:   1 P1         C1-1
# Default space-group preferences: monoclinic axes a(b)c, monoclinic cell choice 1, orthorhombic axes abc, origin choice 2, hexagonal axes, SSG standard setting
# Lattice parameters: a=5.94686, b=6.56283, c=6.16495, alpha=92.08327, beta=93.38727, gamma=91.35038
# c1 1a (x,y,z), x=0.01833, y=-0.03079, z=-0.45540
# c2 1a (x,y,z), x=-0.07446, y=-0.34398, z=0.04734
# c3 1a (x,y,z), x=0.47516, y=-0.01445, z=0.10433
# N1 1a (x,y,z), x=-0.44457, y=0.04468, z=-0.10668
# N2 1a (x,y,z), x=-0.01455, y=0.17758, z=0.46299
# N3 1a (x,y,z), x=0.12137, y=-0.46251, z=-0.01114
# H1 1a (x,y,z), x=0.29721, y=-0.06526, z=0.09498
# H2 1a (x,y,z), x=0.49391, y=0.11813, z=0.21932
# H3 1a (x,y,z), x=-0.42132, y=-0.13766, z=0.16849
# H4 1a (x,y,z), x=0.46292, y=0.16010, z=-0.16926
# H5 1a (x,y,z), x=-0.45969, y=-0.07628, z=-0.21607
# H6 1a (x,y,z), x=-0.18203, y=0.13181, z=-0.03290
# H7 1a (x,y,z), x=0.18204, y=-0.42008, z=-0.15462
# H8 1a (x,y,z), x=0.03198, y=0.30643, z=0.00064
# H9 1a (x,y,z), x=0.25045, y=-0.44223, z=0.10526
# H10 1a (x,y,z), x=-0.21075, y=-0.37047, z=-0.07984
# H11 1a (x,y,z), x=-0.03855, y=-0.17896, z=0.06675
# H12 1a (x,y,z), x=-0.13623, y=-0.39945, z=0.19985
# H13 1a (x,y,z), x=0.12292, y=0.27275, z=-0.49138
# H14 1a (x,y,z), x=-0.15554, y=0.24473, z=-0.47946
# H15 1a (x,y,z), x=-0.02987, y=0.17297, z=0.28316
# H16 1a (x,y,z), x=0.04584, y=-0.02192, z=-0.27782
# H17 1a (x,y,z), x=0.16419, y=-0.09690, z=0.46972
# H18 1a (x,y,z), x=-0.13231, y=-0.12589, z=0.49778
# O1 1a (x,y,z), x=-0.02601, y=0.16327, z=0.03940
# I1 1a (x,y,z), x=0.48825, y=-0.48655, z=-0.47823
# Include strain, displacive ALL distortions
# Subgroup:   1 P1, basis={(0,0,1),(1,0,0),(0,1,0)}, origin=(0.04815,0.11316,0.04297), s=1, i=1
# Order parameter values:
#  P1[0,0,0]GM1(a) 1 P1 s=1 i=1
#     [c1:a:dsp]A_1(a): 0.00000
#     [c1:a:dsp]A_2(a): 0.00000
#     [c1:a:dsp]A_3(a): 0.00000
#     [c2:a:dsp]A_1(a): -0.13957
#     [c2:a:dsp]A_2(a): 0.14579
#     [c2:a:dsp]A_3(a): -0.09188
#     [c3:a:dsp]A_1(a): -0.17890
#     [c3:a:dsp]A_2(a): 0.15432
#     [c3:a:dsp]A_3(a): -0.13959
#     [N1:a:dsp]A_1(a): -0.07123
#     [N1:a:dsp]A_2(a): 0.12199
#     [N1:a:dsp]A_3(a): -0.17349
#     [N2:a:dsp]A_1(a): -0.24156
#     [N2:a:dsp]A_2(a): -0.07836
#     [N2:a:dsp]A_3(a): 0.11348
#     [N3:a:dsp]A_1(a): -0.14101
#     [N3:a:dsp]A_2(a): 0.10369
#     [N3:a:dsp]A_3(a): 0.18231
#     [H1:a:dsp]A_1(a): -0.19146
#     [H1:a:dsp]A_2(a): 0.28645
#     [H1:a:dsp]A_3(a): -0.16072
#     [H2:a:dsp]A_1(a): -0.11355
#     [H2:a:dsp]A_2(a): 0.10118
#     [H2:a:dsp]A_3(a): -0.06583
#     [H3:a:dsp]A_1(a): -0.31438
#     [H3:a:dsp]A_2(a): 0.09967
#     [H3:a:dsp]A_3(a): -0.15536
#     [H4:a:dsp]A_1(a): -0.00727
#     [H4:a:dsp]A_2(a): 0.12068
#     [H4:a:dsp]A_3(a): -0.19914
#     [H5:a:dsp]A_1(a): -0.07653
#     [H5:a:dsp]A_2(a): 0.13133
#     [H5:a:dsp]A_3(a): -0.21275
#     [H6:a:dsp]A_1(a): -0.11363
#     [H6:a:dsp]A_2(a): 0.09255
#     [H6:a:dsp]A_3(a): -0.06974
#     [H7:a:dsp]A_1(a): 0.05615
#     [H7:a:dsp]A_2(a): -0.00407
#     [H7:a:dsp]A_3(a): 0.18976
#     [H8:a:dsp]A_1(a): 0.04011
#     [H8:a:dsp]A_2(a): 0.58100
#     [H8:a:dsp]A_3(a): 0.07294
#     [H9:a:dsp]A_1(a): -0.30712
#     [H9:a:dsp]A_2(a): 0.12577
#     [H9:a:dsp]A_3(a): 0.34015
#     [H10:a:dsp]A_1(a): 0.07103
#     [H10:a:dsp]A_2(a): 0.10358
#     [H10:a:dsp]A_3(a): -0.25099
#     [H11:a:dsp]A_1(a): -0.07084
#     [H11:a:dsp]A_2(a): 0.11440
#     [H11:a:dsp]A_3(a): -0.12751
#     [H12:a:dsp]A_1(a): -0.33309
#     [H12:a:dsp]A_2(a): 0.23545
#     [H12:a:dsp]A_3(a): -0.11592
#     [H13:a:dsp]A_1(a): -0.34383
#     [H13:a:dsp]A_2(a): 0.00660
#     [H13:a:dsp]A_3(a): 0.10494
#     [H14:a:dsp]A_1(a): -0.23567
#     [H14:a:dsp]A_2(a): -0.27052
#     [H14:a:dsp]A_3(a): 0.28424
#     [H15:a:dsp]A_1(a): -0.22306
#     [H15:a:dsp]A_2(a): 0.03919
#     [H15:a:dsp]A_3(a): -0.47558
#     [H16:a:dsp]A_1(a): 0.15572
#     [H16:a:dsp]A_2(a): -0.06757
#     [H16:a:dsp]A_3(a): 0.00665
#     [H17:a:dsp]A_1(a): -0.03585
#     [H17:a:dsp]A_2(a): 0.14841
#     [H17:a:dsp]A_3(a): -0.19610
#     [H18:a:dsp]A_1(a): 0.08092
#     [H18:a:dsp]A_2(a): -0.11639
#     [H18:a:dsp]A_3(a): 0.10130
#     [O1:a:dsp]A_1(a): -0.16772
#     [O1:a:dsp]A_2(a): 0.15907
#     [O1:a:dsp]A_3(a): -0.03746
#     [I1:a:dsp]A_1(a): -0.23452
#     [I1:a:dsp]A_2(a): 0.17175
#     [I1:a:dsp]A_3(a): 0.03727
#     strain_1(a): 0.01688
#     strain_2(a): -0.01204
#     strain_3(a): 0.03191
#     strain_4(a): 0.01834
#     strain_5(a): -0.00987
#     strain_6(a): -0.04021

data_isodistort-output10

_cell_length_a    5.90686
_cell_length_b    6.04894
_cell_length_c    6.68623
_cell_angle_alpha 92.31515
_cell_angle_beta  93.03583
_cell_angle_gamma 90.93596
_cell_volume      238.33005

_symmetry_space_group_name_H-M "P 1"
_symmetry_Int_Tables_number 1
_space_group.reference_setting '001:P 1'
_space_group.transform_Pp_abc a,b,c;0,0,0

loop_
_space_group_symop_id
_space_group_symop_operation_xyz
1 x,y,z

loop_
_atom_site_label
_atom_site_type_symbol
_atom_site_symmetry_multiplicity
_atom_site_Wyckoff_label
_atom_site_fract_x
_atom_site_fract_y
_atom_site_fract_z
_atom_site_occupancy
_atom_site_fract_symmform
c1_1  C   1 a 0.50127  -0.03001 0.85587  1.00000 Dx,Dy,Dz 
c2_1  C   1 a -0.01093 0.85338  0.56437  1.00000 Dx,Dy,Dz 
c3_1  C   1 a 0.03830  0.39594  0.89493  1.00000 Dx,Dy,Dz 
N1_1  N   1 a 0.82178  0.49384  -0.05106 1.00000 Dx,Dy,Dz 
N2_1  N   1 a 0.43811  0.89733  0.05295  1.00000 Dx,Dy,Dz 
N3_1  N   1 a -0.02483 0.05158  0.44101  1.00000 Dx,Dy,Dz 
H1_1  H   1 a 0.02552  0.21619  0.86414  1.00000 Dx,Dy,Dz 
H2_1  H   1 a 0.16529  0.42622  0.01983  1.00000 Dx,Dy,Dz 
H3_1  H   1 a 0.09990  0.47630  0.76330  1.00000 Dx,Dy,Dz 
H4_1  H   1 a 0.75503  0.41183  0.06401  1.00000 Dx,Dy,Dz 
H5_1  H   1 a 0.70601  0.47748  0.82917  1.00000 Dx,Dy,Dz 
H6_1  H   1 a -0.08757 0.75019  0.03218  1.00000 Dx,Dy,Dz 
H7_1  H   1 a 0.83291  0.14505  0.46706  1.00000 Dx,Dy,Dz 
H8_1  H   1 a -0.03083 -0.00657 0.28207  1.00000 Dx,Dy,Dz 
H9_1  H   1 a 0.11724  0.15441  0.46557  1.00000 Dx,Dy,Dz 
H10_1 H   1 a 0.83602  0.75073  0.53053  1.00000 Dx,Dy,Dz 
H11_1 H   1 a 0.00269  -0.09963 0.72440  1.00000 Dx,Dy,Dz 
H12_1 H   1 a 0.13767  0.75918  0.52243  1.00000 Dx,Dy,Dz 
H13_1 H   1 a 0.48235  0.01785  0.16103  1.00000 Dx,Dy,Dz 
H14_1 H   1 a 0.52343  0.75830  0.09180  1.00000 Dx,Dy,Dz 
H15_1 H   1 a 0.16250  0.87963  0.06286  1.00000 Dx,Dy,Dz 
H16_1 H   1 a 0.67993  0.02349  0.85448  1.00000 Dx,Dy,Dz 
H17_1 H   1 a 0.39450  0.10843  0.81125  1.00000 Dx,Dy,Dz 
H18_1 H   1 a 0.47092  0.83352  0.74362  1.00000 Dx,Dy,Dz 
O1_1  O   1 a -0.01002 0.89770  0.07396  1.00000 Dx,Dy,Dz 
I1_1  I   1 a 0.48450  0.40154  0.42651  1.00000 Dx,Dy,Dz 

_iso_displacivemode_number   78

loop_
_iso_displacivemode_ID
_iso_displacivemode_label
_iso_displacivemode_value
   1 P1[0,0,0]GM1(a)[c1:a:dsp]A_1(a) 0.00000
   2 P1[0,0,0]GM1(a)[c1:a:dsp]A_2(a) 0.00000
   3 P1[0,0,0]GM1(a)[c1:a:dsp]A_3(a) 0.00000
   4 P1[0,0,0]GM1(a)[c2:a:dsp]A_1(a) -0.13957
   5 P1[0,0,0]GM1(a)[c2:a:dsp]A_2(a) 0.14579
   6 P1[0,0,0]GM1(a)[c2:a:dsp]A_3(a) -0.09188
   7 P1[0,0,0]GM1(a)[c3:a:dsp]A_1(a) -0.17890
   8 P1[0,0,0]GM1(a)[c3:a:dsp]A_2(a) 0.15432
   9 P1[0,0,0]GM1(a)[c3:a:dsp]A_3(a) -0.13959
  10 P1[0,0,0]GM1(a)[N1:a:dsp]A_1(a) -0.07123
  11 P1[0,0,0]GM1(a)[N1:a:dsp]A_2(a) 0.12199
  12 P1[0,0,0]GM1(a)[N1:a:dsp]A_3(a) -0.17349
  13 P1[0,0,0]GM1(a)[N2:a:dsp]A_1(a) -0.24156
  14 P1[0,0,0]GM1(a)[N2:a:dsp]A_2(a) -0.07836
  15 P1[0,0,0]GM1(a)[N2:a:dsp]A_3(a) 0.11348
  16 P1[0,0,0]GM1(a)[N3:a:dsp]A_1(a) -0.14101
  17 P1[0,0,0]GM1(a)[N3:a:dsp]A_2(a) 0.10369
  18 P1[0,0,0]GM1(a)[N3:a:dsp]A_3(a) 0.18231
  19 P1[0,0,0]GM1(a)[H1:a:dsp]A_1(a) -0.19146
  20 P1[0,0,0]GM1(a)[H1:a:dsp]A_2(a) 0.28645
  21 P1[0,0,0]GM1(a)[H1:a:dsp]A_3(a) -0.16072
  22 P1[0,0,0]GM1(a)[H2:a:dsp]A_1(a) -0.11355
  23 P1[0,0,0]GM1(a)[H2:a:dsp]A_2(a) 0.10118
  24 P1[0,0,0]GM1(a)[H2:a:dsp]A_3(a) -0.06583
  25 P1[0,0,0]GM1(a)[H3:a:dsp]A_1(a) -0.31438
  26 P1[0,0,0]GM1(a)[H3:a:dsp]A_2(a) 0.09967
  27 P1[0,0,0]GM1(a)[H3:a:dsp]A_3(a) -0.15536
  28 P1[0,0,0]GM1(a)[H4:a:dsp]A_1(a) -0.00727
  29 P1[0,0,0]GM1(a)[H4:a:dsp]A_2(a) 0.12068
  30 P1[0,0,0]GM1(a)[H4:a:dsp]A_3(a) -0.19914
  31 P1[0,0,0]GM1(a)[H5:a:dsp]A_1(a) -0.07653
  32 P1[0,0,0]GM1(a)[H5:a:dsp]A_2(a) 0.13133
  33 P1[0,0,0]GM1(a)[H5:a:dsp]A_3(a) -0.21275
  34 P1[0,0,0]GM1(a)[H6:a:dsp]A_1(a) -0.11363
  35 P1[0,0,0]GM1(a)[H6:a:dsp]A_2(a) 0.09255
  36 P1[0,0,0]GM1(a)[H6:a:dsp]A_3(a) -0.06974
  37 P1[0,0,0]GM1(a)[H7:a:dsp]A_1(a) 0.05615
  38 P1[0,0,0]GM1(a)[H7:a:dsp]A_2(a) -0.00407
  39 P1[0,0,0]GM1(a)[H7:a:dsp]A_3(a) 0.18976
  40 P1[0,0,0]GM1(a)[H8:a:dsp]A_1(a) 0.04011
  41 P1[0,0,0]GM1(a)[H8:a:dsp]A_2(a) 0.58100
  42 P1[0,0,0]GM1(a)[H8:a:dsp]A_3(a) 0.07294
  43 P1[0,0,0]GM1(a)[H9:a:dsp]A_1(a) -0.30712
  44 P1[0,0,0]GM1(a)[H9:a:dsp]A_2(a) 0.12577
  45 P1[0,0,0]GM1(a)[H9:a:dsp]A_3(a) 0.34015
  46 P1[0,0,0]GM1(a)[H10:a:dsp]A_1(a) 0.07103
  47 P1[0,0,0]GM1(a)[H10:a:dsp]A_2(a) 0.10358
  48 P1[0,0,0]GM1(a)[H10:a:dsp]A_3(a) -0.25099
  49 P1[0,0,0]GM1(a)[H11:a:dsp]A_1(a) -0.07084
  50 P1[0,0,0]GM1(a)[H11:a:dsp]A_2(a) 0.11440
  51 P1[0,0,0]GM1(a)[H11:a:dsp]A_3(a) -0.12751
  52 P1[0,0,0]GM1(a)[H12:a:dsp]A_1(a) -0.33309
  53 P1[0,0,0]GM1(a)[H12:a:dsp]A_2(a) 0.23545
  54 P1[0,0,0]GM1(a)[H12:a:dsp]A_3(a) -0.11592
  55 P1[0,0,0]GM1(a)[H13:a:dsp]A_1(a) -0.34383
  56 P1[0,0,0]GM1(a)[H13:a:dsp]A_2(a) 0.00660
  57 P1[0,0,0]GM1(a)[H13:a:dsp]A_3(a) 0.10494
  58 P1[0,0,0]GM1(a)[H14:a:dsp]A_1(a) -0.23567
  59 P1[0,0,0]GM1(a)[H14:a:dsp]A_2(a) -0.27052
  60 P1[0,0,0]GM1(a)[H14:a:dsp]A_3(a) 0.28424
  61 P1[0,0,0]GM1(a)[H15:a:dsp]A_1(a) -0.22306
  62 P1[0,0,0]GM1(a)[H15:a:dsp]A_2(a) 0.03919
  63 P1[0,0,0]GM1(a)[H15:a:dsp]A_3(a) -0.47558
  64 P1[0,0,0]GM1(a)[H16:a:dsp]A_1(a) 0.15572
  65 P1[0,0,0]GM1(a)[H16:a:dsp]A_2(a) -0.06757
  66 P1[0,0,0]GM1(a)[H16:a:dsp]A_3(a) 0.00665
  67 P1[0,0,0]GM1(a)[H17:a:dsp]A_1(a) -0.03585
  68 P1[0,0,0]GM1(a)[H17:a:dsp]A_2(a) 0.14841
  69 P1[0,0,0]GM1(a)[H17:a:dsp]A_3(a) -0.19610
  70 P1[0,0,0]GM1(a)[H18:a:dsp]A_1(a) 0.08092
  71 P1[0,0,0]GM1(a)[H18:a:dsp]A_2(a) -0.11639
  72 P1[0,0,0]GM1(a)[H18:a:dsp]A_3(a) 0.10130
  73 P1[0,0,0]GM1(a)[O1:a:dsp]A_1(a) -0.16772
  74 P1[0,0,0]GM1(a)[O1:a:dsp]A_2(a) 0.15907
  75 P1[0,0,0]GM1(a)[O1:a:dsp]A_3(a) -0.03746
  76 P1[0,0,0]GM1(a)[I1:a:dsp]A_1(a) -0.23452
  77 P1[0,0,0]GM1(a)[I1:a:dsp]A_2(a) 0.17175
  78 P1[0,0,0]GM1(a)[I1:a:dsp]A_3(a) 0.03727

loop_
_iso_displacivemodenorm_ID
_iso_displacivemodenorm_value
   1 0.16816
   2 0.15242
   3 0.16261
   4 0.16816
   5 0.15242
   6 0.16261
   7 0.16816
   8 0.15242
   9 0.16261
  10 0.16816
  11 0.15242
  12 0.16261
  13 0.16816
  14 0.15242
  15 0.16261
  16 0.16816
  17 0.15242
  18 0.16261
  19 0.16816
  20 0.15242
  21 0.16261
  22 0.16816
  23 0.15242
  24 0.16261
  25 0.16816
  26 0.15242
  27 0.16261
  28 0.16816
  29 0.15242
  30 0.16261
  31 0.16816
  32 0.15242
  33 0.16261
  34 0.16816
  35 0.15242
  36 0.16261
  37 0.16816
  38 0.15242
  39 0.16261
  40 0.16816
  41 0.15242
  42 0.16261
  43 0.16816
  44 0.15242
  45 0.16261
  46 0.16816
  47 0.15242
  48 0.16261
  49 0.16816
  50 0.15242
  51 0.16261
  52 0.16816
  53 0.15242
  54 0.16261
  55 0.16816
  56 0.15242
  57 0.16261
  58 0.16816
  59 0.15242
  60 0.16261
  61 0.16816
  62 0.15242
  63 0.16261
  64 0.16816
  65 0.15242
  66 0.16261
  67 0.16816
  68 0.15242
  69 0.16261
  70 0.16816
  71 0.15242
  72 0.16261
  73 0.16816
  74 0.15242
  75 0.16261
  76 0.16816
  77 0.15242
  78 0.16261

loop_
_iso_deltacoordinate_ID
_iso_deltacoordinate_label
_iso_deltacoordinate_value
   1 c1_1_dx   0.00000
   2 c1_1_dy   0.00000
   3 c1_1_dz   0.00000
   4 c2_1_dx  -0.01494
   5 c2_1_dy  -0.02382
   6 c2_1_dz   0.02169
   7 c3_1_dx  -0.02270
   8 c3_1_dy  -0.03088
   9 c3_1_dz   0.02272
  10 N1_1_dx  -0.02821
  11 N1_1_dy  -0.01325
  12 N1_1_dz   0.01759
  13 N2_1_dx   0.01845
  14 N2_1_dy  -0.03978
  15 N2_1_dz  -0.01129
  16 N3_1_dx   0.02964
  17 N3_1_dy  -0.02146
  18 N3_1_dz   0.01686
  19 H1_1_dx  -0.02613
  20 H1_1_dy  -0.03268
  21 H1_1_dz   0.04273
  22 H2_1_dx  -0.01070
  23 H2_1_dy  -0.01936
  24 H2_1_dz   0.01504
  25 H3_1_dx  -0.02526
  26 H3_1_dy  -0.05404
  27 H3_1_dz   0.01430
  28 H4_1_dx  -0.03238
  29 H4_1_dy  -0.00276
  30 H4_1_dz   0.01724
  31 H5_1_dx  -0.03459
  32 H5_1_dy  -0.01450
  33 H5_1_dz   0.01879
  34 H6_1_dx  -0.01134
  35 H6_1_dy  -0.01945
  36 H6_1_dz   0.01370
  37 H7_1_dx   0.03086
  38 H7_1_dy   0.01134
  39 H7_1_dz   0.00047
  40 H8_1_dx   0.01186
  41 H8_1_dy   0.00979
  42 H8_1_dz   0.08897
  43 H9_1_dx   0.05531
  44 H9_1_dy  -0.04771
  45 H9_1_dz   0.02113
  46 H10_1_dx  -0.04081
  47 H10_1_dy   0.00982
  48 H10_1_dz   0.01434
  49 H11_1_dx  -0.02073
  50 H11_1_dy  -0.01275
  51 H11_1_dz   0.01670
  52 H12_1_dx  -0.01885
  53 H12_1_dy  -0.05625
  54 H12_1_dz   0.03522
  55 H13_1_dx   0.01706
  56 H13_1_dy  -0.05673
  57 H13_1_dz   0.00161
  58 H14_1_dx   0.04622
  59 H14_1_dy  -0.03783
  60 H14_1_dz  -0.03959
  61 H15_1_dx  -0.07733
  62 H15_1_dy  -0.04216
  63 H15_1_dz   0.00323
  64 H16_1_dx   0.00108
  65 H16_1_dy   0.02598
  66 H16_1_dz  -0.01026
  67 H17_1_dx  -0.03189
  68 H17_1_dy  -0.00742
  69 H17_1_dz   0.02149
  70 H18_1_dx   0.01647
  71 H18_1_dy   0.01417
  72 H18_1_dz  -0.01716
  73 O1_1_dx  -0.00609
  74 O1_1_dy  -0.02795
  75 O1_1_dz   0.02403
  76 I1_1_dx   0.00606
  77 I1_1_dy  -0.03838
  78 I1_1_dz   0.02639

loop_
_iso_coordinate_label
_iso_coordinate_formula
c1_1_x                  "   0.50127 + c1_1_dx"
c1_1_y                  "  -0.03001 + c1_1_dy"
c1_1_z                  "   0.85587 + c1_1_dz"
c2_1_x                  "   0.00401 + c2_1_dx"
c2_1_y                  "   0.87720 + c2_1_dy"
c2_1_z                  "   0.54268 + c2_1_dz"
c3_1_x                  "   0.06099 + c3_1_dx"
c3_1_y                  "   0.42682 + c3_1_dy"
c3_1_z                  "   0.87222 + c3_1_dz"
N1_1_x                  "   0.84999 + N1_1_dx"
N1_1_y                  "   0.50709 + N1_1_dy"
N1_1_z                  "   0.93135 + N1_1_dz"
N2_1_x                  "   0.41965 + N2_1_dx"
N2_1_y                  "   0.93712 + N2_1_dy"
N2_1_z                  "   0.06424 + N2_1_dz"
N3_1_x                  "  -0.05448 + N3_1_dx"
N3_1_y                  "   0.07304 + N3_1_dy"
N3_1_z                  "   0.42416 + N3_1_dz"
H1_1_x                  "   0.05165 + H1_1_dx"
H1_1_y                  "   0.24888 + H1_1_dy"
H1_1_z                  "   0.82141 + H1_1_dz"
H2_1_x                  "   0.17599 + H2_1_dx"
H2_1_y                  "   0.44558 + H2_1_dy"
H2_1_z                  "   0.00479 + H2_1_dz"
H3_1_x                  "   0.12516 + H3_1_dx"
H3_1_y                  "   0.53034 + H3_1_dy"
H3_1_z                  "   0.74901 + H3_1_dz"
H4_1_x                  "   0.78741 + H4_1_dx"
H4_1_y                  "   0.41459 + H4_1_dy"
H4_1_z                  "   0.04677 + H4_1_dz"
H5_1_x                  "   0.74060 + H5_1_dx"
H5_1_y                  "   0.49198 + H5_1_dy"
H5_1_z                  "   0.81038 + H5_1_dz"
H6_1_x                  "   0.92377 + H6_1_dx"
H6_1_y                  "   0.76964 + H6_1_dy"
H6_1_z                  "   0.01848 + H6_1_dz"
H7_1_x                  "   0.80205 + H7_1_dx"
H7_1_y                  "   0.13371 + H7_1_dy"
H7_1_z                  "   0.46659 + H7_1_dz"
H8_1_x                  "  -0.04269 + H8_1_dx"
H8_1_y                  "  -0.01635 + H8_1_dy"
H8_1_z                  "   0.19310 + H8_1_dz"
H9_1_x                  "   0.06193 + H9_1_dx"
H9_1_y                  "   0.20212 + H9_1_dy"
H9_1_z                  "   0.44444 + H9_1_dz"
H10_1_x                 "   0.87683 + H10_1_dx"
H10_1_y                 "   0.74092 + H10_1_dy"
H10_1_z                 "   0.51619 + H10_1_dz"
H11_1_x                 "   0.02342 + H11_1_dx"
H11_1_y                 "   0.91312 + H11_1_dy"
H11_1_z                 "   0.70770 + H11_1_dz"
H12_1_x                 "   0.15652 + H12_1_dx"
H12_1_y                 "   0.81543 + H12_1_dy"
H12_1_z                 "   0.48722 + H12_1_dz"
H13_1_x                 "   0.46528 + H13_1_dx"
H13_1_y                 "   0.07458 + H13_1_dy"
H13_1_z                 "   0.15942 + H13_1_dz"
H14_1_x                 "   0.47721 + H14_1_dx"
H14_1_y                 "   0.79613 + H14_1_dy"
H14_1_z                 "   0.13139 + H14_1_dz"
H15_1_x                 "   0.23983 + H15_1_dx"
H15_1_y                 "   0.92179 + H15_1_dy"
H15_1_z                 "   0.05963 + H15_1_dz"
H16_1_x                 "   0.67885 + H16_1_dx"
H16_1_y                 "  -0.00249 + H16_1_dy"
H16_1_z                 "   0.86474 + H16_1_dz"
H17_1_x                 "   0.42638 + H17_1_dx"
H17_1_y                 "   0.11586 + H17_1_dy"
H17_1_z                 "   0.78976 + H17_1_dz"
H18_1_x                 "   0.45444 + H18_1_dx"
H18_1_y                 "   0.81935 + H18_1_dy"
H18_1_z                 "   0.76078 + H18_1_dz"
O1_1_x                  "  -0.00393 + O1_1_dx"
O1_1_y                  "   0.92565 + O1_1_dy"
O1_1_z                  "   0.04993 + O1_1_dz"
I1_1_x                  "   0.47844 + I1_1_dx"
I1_1_y                  "   0.43992 + I1_1_dy"
I1_1_z                  "   0.40012 + I1_1_dz"

# matrix conversion: deltacoords(lattice units) = matrix.(modeamplitudes*modenormfactors)
# Square matrix with _iso_displacivemode_number rows and columns

loop_
_iso_displacivemodematrix_row
_iso_displacivemodematrix_col
_iso_displacivemodematrix_value
    1    3   1.00000
    2    1   1.00000
    2    2   0.02601
    2    3   0.06217
    3    2   1.00000
    3    3   0.03548
    4    6   1.00000
    5    4   1.00000
    5    5   0.02601
    5    6   0.06217
    6    5   1.00000
    6    6   0.03548
    7    9   1.00000
    8    7   1.00000
    8    8   0.02601
    8    9   0.06217
    9    8   1.00000
    9    9   0.03548
   10   12   1.00000
   11   10   1.00000
   11   11   0.02601
   11   12   0.06217
   12   11   1.00000
   12   12   0.03548
   13   15   1.00000
   14   13   1.00000
   14   14   0.02601
   14   15   0.06217
   15   14   1.00000
   15   15   0.03548
   16   18   1.00000
   17   16   1.00000
   17   17   0.02601
   17   18   0.06217
   18   17   1.00000
   18   18   0.03548
   19   21   1.00000
   20   19   1.00000
   20   20   0.02601
   20   21   0.06217
   21   20   1.00000
   21   21   0.03548
   22   24   1.00000
   23   22   1.00000
   23   23   0.02601
   23   24   0.06217
   24   23   1.00000
   24   24   0.03548
   25   27   1.00000
   26   25   1.00000
   26   26   0.02601
   26   27   0.06217
   27   26   1.00000
   27   27   0.03548
   28   30   1.00000
   29   28   1.00000
   29   29   0.02601
   29   30   0.06217
   30   29   1.00000
   30   30   0.03548
   31   33   1.00000
   32   31   1.00000
   32   32   0.02601
   32   33   0.06217
   33   32   1.00000
   33   33   0.03548
   34   36   1.00000
   35   34   1.00000
   35   35   0.02601
   35   36   0.06217
   36   35   1.00000
   36   36   0.03548
   37   39   1.00000
   38   37   1.00000
   38   38   0.02601
   38   39   0.06217
   39   38   1.00000
   39   39   0.03548
   40   42   1.00000
   41   40   1.00000
   41   41   0.02601
   41   42   0.06217
   42   41   1.00000
   42   42   0.03548
   43   45   1.00000
   44   43   1.00000
   44   44   0.02601
   44   45   0.06217
   45   44   1.00000
   45   45   0.03548
   46   48   1.00000
   47   46   1.00000
   47   47   0.02601
   47   48   0.06217
   48   47   1.00000
   48   48   0.03548
   49   51   1.00000
   50   49   1.00000
   50   50   0.02601
   50   51   0.06217
   51   50   1.00000
   51   51   0.03548
   52   54   1.00000
   53   52   1.00000
   53   53   0.02601
   53   54   0.06217
   54   53   1.00000
   54   54   0.03548
   55   57   1.00000
   56   55   1.00000
   56   56   0.02601
   56   57   0.06217
   57   56   1.00000
   57   57   0.03548
   58   60   1.00000
   59   58   1.00000
   59   59   0.02601
   59   60   0.06217
   60   59   1.00000
   60   60   0.03548
   61   63   1.00000
   62   61   1.00000
   62   62   0.02601
   62   63   0.06217
   63   62   1.00000
   63   63   0.03548
   64   66   1.00000
   65   64   1.00000
   65   65   0.02601
   65   66   0.06217
   66   65   1.00000
   66   66   0.03548
   67   69   1.00000
   68   67   1.00000
   68   68   0.02601
   68   69   0.06217
   69   68   1.00000
   69   69   0.03548
   70   72   1.00000
   71   70   1.00000
   71   71   0.02601
   71   72   0.06217
   72   71   1.00000
   72   72   0.03548
   73   75   1.00000
   74   73   1.00000
   74   74   0.02601
   74   75   0.06217
   75   74   1.00000
   75   75   0.03548
   76   78   1.00000
   77   76   1.00000
   77   77   0.02601
   77   78   0.06217
   78   77   1.00000
   78   78   0.03548

_iso_magneticmode_number    0


_iso_rotationalmode_number    0


_iso_occupancymode_number    0

_iso_strainmode_number    6

loop_
_iso_strainmode_ID
_iso_strainmode_label
_iso_strainmode_value
   1 P1[0,0,0]GM1(a)strain_1(a) 0.01688
   2 P1[0,0,0]GM1(a)strain_2(a) -0.01204
   3 P1[0,0,0]GM1(a)strain_3(a) 0.03191
   4 P1[0,0,0]GM1(a)strain_4(a) 0.01834
   5 P1[0,0,0]GM1(a)strain_5(a) -0.00987
   6 P1[0,0,0]GM1(a)strain_6(a) -0.04021

loop_
_iso_strainmodenorm_ID
_iso_strainmodenorm_value
   1 1.00000
   2 1.41421
   3 1.41421
   4 1.00000
   5 1.41421
   6 1.00000

loop_
_iso_strain_ID
_iso_strain_label
_iso_strain_value
   1 E_1   0.01688
   2 E_2   0.01834
   3 E_3  -0.04021
   4 E_4  -0.00987
   5 E_5   0.03191
   6 E_6  -0.01204

# matrix conversion: strains(parent) = matrix * modeamplitudes
# Rectangular matrix with 6 rows and _iso_strainmode_number columns

loop_
_iso_strainmodematrix_row
_iso_strainmodematrix_col
_iso_strainmodematrix_value
    1    1   1.00000
    2    4   1.00000
    3    6   1.00000
    4    5   1.00000
    5    3   1.00000
    6    2   1.00000

# end of structure file
# end of cif
